electric-grid/physical/reference/ieee-300bus/ieee300bus.epc
title
 13/05/91 CYME INTERNATIONAL    100.0 1991 S                
 IEEE 300-BUS TEST SYSTEM                                   
!
comments
!
solution parameters
tap    1    tcul  enabled/disabled
phas   1    ps    enabled/disabled
area   1    area  enabled/disabled
svd    1    svd   enabled/disabled
dctap  1    dc    enabled/disabled
gcd    1    gcd   enabled/disabled
jump  0.000290    jumper threshold
toler   0.0100    newton tolerance
sbase 100.0000    system mva base
!
bus data  [300]               ty  vsched   volt     angle    ar zone  vmax   vmin   date_in date_out pid L own st  latitude  longitude island    sdmon   vmax1      vmin1      dvmax
      1 "1           " 115.0000 :  1 1.027004 1.027004   6.51787   1    1 1.1000 0.9000   400101   391231   0 0   1 0    0.00000    0.00000 0    0.00000    0.00000    0.00000
      2 "1           " 115.0000 :  1 1.034051 1.034051   8.27514   1    1 1.1000 0.9000   400101   391231   0 0   1 0    0.00000    0.00000 0    0.00000    0.00000    0.00000
      3 "1           " 230.0000 :  1 0.993794 0.993794   7.21755   1    1 1.1000 0.9000   400101   391231   0 0   1 0    0.00000    0.00000 0    0.00000    0.00000    0.00000
      4 "1           " 345.0000 :  1 1.027393 1.027393   5.20755   1    1 1.1000 0.9000   400101   391231   0 0   1 0    0.00000    0.00000 0    0.00000    0.00000    0.00000
      5 "1           " 115.0000 :  1 1.017498 1.017498   5.24905   1    1 1.1000 0.9000   400101   391231   0 0   1 0    0.00000    0.00000 0    0.00000    0.00000    0.00000
      6 "1           " 115.0000 :  1 1.029553 1.029553   7.53697   1    1 1.1000 0.9000   400101   391231   0 0   1 0    0.00000    0.00000 0    0.00000    0.00000    0.00000
      7 "1           " 230.0000 :  1 0.990285 0.990285   6.77871   1    1 1.1000 0.9000   400101   391231   0 0   1 0    0.00000    0.00000 0    0.00000    0.00000    0.00000
      8 "1           " 115.0000 :  2 1.01530 1.013740   2.86568   1    1 1.1000 0.9000   400101   391231   0 0   1 0    0.00000    0.00000 0    0.00000    0.00000    0.00000
      9 "1           " 115.0000 :  1 1.002135 1.002135   3.39023   1    1 1.1000 0.9000   400101   391231   0 0   1 0    0.00000    0.00000 0    0.00000    0.00000    0.00000
     10 "1           " 230.0000 :  2 1.02050 1.018692   1.88064   1    1 1.1000 0.9000   400101   391231   0 0   1 0    0.00000    0.00000 0    0.00000    0.00000    0.00000
     11 "1           " 115.0000 :  1 1.004775 1.004775   2.97764   1    1 1.1000 0.9000   400101   391231   0 0   1 0    0.00000    0.00000 0    0.00000    0.00000    0.00000
     12 "1           " 230.0000 :  1 0.995159 0.995159   5.77686   1    1 1.1000 0.9000   400101   391231   0 0   1 0    0.00000    0.00000 0    0.00000    0.00000    0.00000
     13 "1           " 115.0000 :  1 0.996378 0.996378  -0.04166   1    1 1.1000 0.9000   400101   391231   0 0   1 0    0.00000    0.00000 0    0.00000    0.00000    0.00000
     14 "1           " 115.0000 :  1 0.996941 0.996941  -4.49238   1    1 1.1000 0.9000   400101   391231   0 0   1 0    0.00000    0.00000 0    0.00000    0.00000    0.00000
     15 "1           " 115.0000 :  1 1.032029 1.032029  -8.39808   1    1 1.1000 0.9000   400101   391231   0 0   1 0    0.00000    0.00000 0    0.00000    0.00000    0.00000
     16 "1           " 345.0000 :  1 1.028494 1.028494  -2.45123   1    1 1.1000 0.9000   400101   391231   0 0   1 0    0.00000    0.00000 0    0.00000    0.00000    0.00000
     17 "1           " 115.0000 :  1 1.062854 1.062854 -12.95127   1    1 1.1000 0.9000   400101   391231   0 0   1 0    0.00000    0.00000 0    0.00000    0.00000    0.00000
     19 "1           " 230.0000 :  1 0.979798 0.979798   1.56962   1    1 1.1000 0.9000   400101   391231   0 0   1 0    0.00000    0.00000 0    0.00000    0.00000    0.00000
     20 "1           " 115.0000 :  2 1.00100 0.999302  -1.95296   1    1 1.1000 0.9000   400101   391231   0 0   1 0    0.00000    0.00000 0    0.00000    0.00000    0.00000
     21 "1           " 230.0000 :  1 0.973342 0.973342   2.14052   1    1 1.1000 0.9000   400101   391231   0 0   1 0    0.00000    0.00000 0    0.00000    0.00000    0.00000
     22 "1           " 115.0000 :  1 0.994847 0.994847  -1.46795   1    1 1.1000 0.9000   400101   391231   0 0   1 0    0.00000    0.00000 0    0.00000    0.00000    0.00000
     23 "1           " 115.0000 :  1 1.049696 1.049696   4.44344   1    1 1.1000 0.9000   400101   391231   0 0   1 0    0.00000    0.00000 0    0.00000    0.00000    0.00000
     24 "1           " 230.0000 :  1 1.004908 1.004908   6.53755   1    1 1.1000 0.9000   400101   391231   0 0   1 0    0.00000    0.00000 0    0.00000    0.00000    0.00000
     25 "1           " 115.0000 :  1 1.022803 1.022803   1.94378   1    1 1.1000 0.9000   400101   391231   0 0   1 0    0.00000    0.00000 0    0.00000    0.00000    0.00000
     26 "1           " 115.0000 :  1 0.997768 0.997768  -1.23156   1    1 1.1000 0.9000   400101   391231   0 0   1 0    0.00000    0.00000 0    0.00000    0.00000    0.00000
     27 "1           " 115.0000 :  1 0.973830 0.973830  -4.39772   1    1 1.1000 0.9000   400101   391231   0 0   1 0    0.00000    0.00000 0    0.00000    0.00000    0.00000
     33 "1           " 115.0000 :  1 1.023331 1.023331 -12.16438   1    1 1.1000 0.9000   400101   391231   0 0   1 0    0.00000    0.00000 0    0.00000    0.00000    0.00000
     34 "1           " 345.0000 :  1 1.039763 1.039763  -8.06413   1    1 1.1000 0.9000   400101   391231   0 0   1 0    0.00000    0.00000 0    0.00000    0.00000    0.00000
     35 "1           " 115.0000 :  1 0.975632 0.975632 -26.17168   1    1 1.1000 0.9000   400101   391231   0 0   1 0    0.00000    0.00000 0    0.00000    0.00000    0.00000
     36 "1           " 230.0000 :  1 1.001003 1.001003 -23.03520   1    1 1.1000 0.9000   400101   391231   0 0   1 0    0.00000    0.00000 0    0.00000    0.00000    0.00000
     37 "1           " 115.0000 :  1 1.019028 1.019028 -11.32316   1    1 1.1000 0.9000   400101   391231   0 0   1 0    0.00000    0.00000 0    0.00000    0.00000    0.00000
     38 "1           " 115.0000 :  1 1.019148 1.019148 -12.71108   1    1 1.1000 0.9000   400101   391231   0 0   1 0    0.00000    0.00000 0    0.00000    0.00000    0.00000
     39 "1           " 345.0000 :  1 1.052163 1.052163  -5.93223   1    1 1.1000 0.9000   400101   391231   0 0   1 0    0.00000    0.00000 0    0.00000    0.00000    0.00000
     40 "1           " 115.0000 :  1 1.020507 1.020507 -12.90482   1    1 1.1000 0.9000   400101   391231   0 0   1 0    0.00000    0.00000 0    0.00000    0.00000    0.00000
     41 "1           " 115.0000 :  1 1.027995 1.027995 -10.57831   1    1 1.1000 0.9000   400101   391231   0 0   1 0    0.00000    0.00000 0    0.00000    0.00000    0.00000
     42 "1           " 345.0000 :  1 1.043208 1.043208  -7.56922   1    1 1.1000 0.9000   400101   391231   0 0   1 0    0.00000    0.00000 0    0.00000    0.00000    0.00000
     43 "1           " 115.0000 :  1 1.000134 1.000134 -17.17311   1    1 1.1000 0.9000   400101   391231   0 0   1 0    0.00000    0.00000 0    0.00000    0.00000    0.00000
     44 "1           " 115.0000 :  1 1.008658 1.008658 -17.99577   1    1 1.1000 0.9000   400101   391231   0 0   1 0    0.00000    0.00000 0    0.00000    0.00000    0.00000
     45 "1           " 230.0000 :  1 1.021908 1.021908 -15.30519   1    1 1.1000 0.9000   400101   391231   0 0   1 0    0.00000    0.00000 0    0.00000    0.00000    0.00000
     46 "1           " 345.0000 :  1 1.033138 1.033138 -12.07863   1    1 1.1000 0.9000   400101   391231   0 0   1 0    0.00000    0.00000 0    0.00000    0.00000    0.00000
     47 "1           " 115.0000 :  1 0.977887 0.977887 -23.63373   1    1 1.1000 0.9000   400101   391231   0 0   1 0    0.00000    0.00000 0    0.00000    0.00000    0.00000
     48 "1           " 115.0000 :  1 1.001346 1.001346 -16.23376   1    1 1.1000 0.9000   400101   391231   0 0   1 0    0.00000    0.00000 0    0.00000    0.00000    0.00000
     49 "1           " 115.0000 :  1 1.047301 1.047301  -2.98524   1    1 1.1000 0.9000   400101   391231   0 0   1 0    0.00000    0.00000 0    0.00000    0.00000    0.00000
     51 "1           " 115.0000 :  1 1.024527 1.024527  -8.36243   1    1 1.1000 0.9000   400101   391231   0 0   1 0    0.00000    0.00000 0    0.00000    0.00000    0.00000
     52 "1           " 115.0000 :  1 0.997564 0.997564 -12.39373   1    1 1.1000 0.9000   400101   391231   0 0   1 0    0.00000    0.00000 0    0.00000    0.00000    0.00000
     53 "1           " 115.0000 :  1 0.995642 0.995642 -18.05285   1    1 1.1000 0.9000   400101   391231   0 0   1 0    0.00000    0.00000 0    0.00000    0.00000    0.00000
     54 "1           " 115.0000 :  1 1.005104 1.005104 -16.81477   1    1 1.1000 0.9000   400101   391231   0 0   1 0    0.00000    0.00000 0    0.00000    0.00000    0.00000
     55 "1           " 115.0000 :  1 1.015364 1.015364 -12.97932   1    1 1.1000 0.9000   400101   391231   0 0   1 0    0.00000    0.00000 0    0.00000    0.00000    0.00000
     57 "1           " 115.0000 :  1 1.033802 1.033802  -9.58061   1    1 1.1000 0.9000   400101   391231   0 0   1 0    0.00000    0.00000 0    0.00000    0.00000    0.00000
     58 "1           " 115.0000 :  1 0.991485 0.991485  -7.92487   1    1 1.1000 0.9000   400101   391231   0 0   1 0    0.00000    0.00000 0    0.00000    0.00000    0.00000
     59 "1           " 115.0000 :  1 0.978606 0.978606  -7.32940   1    1 1.1000 0.9000   400101   391231   0 0   1 0    0.00000    0.00000 0    0.00000    0.00000    0.00000
     60 "1           " 230.0000 :  1 1.026591 1.026591 -10.79438   1    1 1.1000 0.9000   400101   391231   0 0   1 0    0.00000    0.00000 0    0.00000    0.00000    0.00000
     61 "1           " 115.0000 :  1 0.990571 0.990571  -5.56165   1    1 1.1000 0.9000   400101   391231   0 0   1 0    0.00000    0.00000 0    0.00000    0.00000    0.00000
     62 "1           " 230.0000 :  1 1.016829 1.016829  -3.40329   1    1 1.1000 0.9000   400101   391231   0 0   1 0    0.00000    0.00000 0    0.00000    0.00000    0.00000
     63 "1           " 115.0000 :  2 0.95830 0.958300 -19.76483   1    1 1.1000 0.9000   400101   391231   0 0   1 0    0.00000    0.00000 0    0.00000    0.00000    0.00000
     64 "1           " 230.0000 :  1 0.948397 0.948397 -15.15243   1    1 1.1000 0.9000   400101   391231   0 0   1 0    0.00000    0.00000 0    0.00000    0.00000    0.00000
     69 "1           " 115.0000 :  1 0.962978 0.962978 -26.09032   1    1 1.1000 0.9000   400101   391231   0 0   1 0    0.00000    0.00000 0    0.00000    0.00000    0.00000
     70 "1           " 115.0000 :  1 0.951275 0.951275 -35.61436   1    1 1.1000 0.9000   400101   391231   0 0   1 0    0.00000    0.00000 0    0.00000    0.00000    0.00000
     71 "1           " 115.0000 :  1 0.979349 0.979349 -30.33471   1    1 1.1000 0.9000   400101   391231   0 0   1 0    0.00000    0.00000 0    0.00000    0.00000    0.00000
     72 "1           " 115.0000 :  1 0.969565 0.969565 -27.92746   1    1 1.1000 0.9000   400101   391231   0 0   1 0    0.00000    0.00000 0    0.00000    0.00000    0.00000
     73 "1           " 115.0000 :  1 0.977512 0.977512 -26.22846   1    1 1.1000 0.9000   400101   391231   0 0   1 0    0.00000    0.00000 0    0.00000    0.00000    0.00000
     74 "1           " 230.0000 :  1 0.996487 0.996487 -22.47263   1    1 1.1000 0.9000   400101   391231   0 0   1 0    0.00000    0.00000 0    0.00000    0.00000    0.00000
     76 "1           " 115.0000 :  2 0.96320 0.963209 -26.99224   1    1 1.1000 0.9000   400101   391231   0 0   1 0    0.00000    0.00000 0    0.00000    0.00000    0.00000
     77 "1           " 115.0000 :  1 0.983747 0.983747 -25.38895   1    1 1.1000 0.9000   400101   391231   0 0   1 0    0.00000    0.00000 0    0.00000    0.00000    0.00000
     78 "1           " 115.0000 :  1 0.989971 0.989971 -24.49851   1    1 1.1000 0.9000   400101   391231   0 0   1 0    0.00000    0.00000 0    0.00000    0.00000    0.00000
     79 "1           " 115.0000 :  1 0.981971 0.981971 -25.42246   1    1 1.1000 0.9000   400101   391231   0 0   1 0    0.00000    0.00000 0    0.00000    0.00000    0.00000
     80 "1           " 115.0000 :  1 0.987178 0.987178 -25.40942   1    1 1.1000 0.9000   400101   391231   0 0   1 0    0.00000    0.00000 0    0.00000    0.00000    0.00000
     81 "1           " 345.0000 :  1 1.033556 1.033556 -19.29759   1    1 1.1000 0.9000   400101   391231   0 0   1 0    0.00000    0.00000 0    0.00000    0.00000    0.00000
     84 "1           " 115.0000 :  2 1.02500 1.025000 -17.61133   1    1 1.1000 0.9000   400101   391231   0 0   1 0    0.00000    0.00000 0    0.00000    0.00000    0.00000
     85 "1           " 230.0000 :  1 0.986726 0.986726 -17.65541   1    1 1.1000 0.9000   400101   391231   0 0   1 0    0.00000    0.00000 0    0.00000    0.00000    0.00000
     86 "1           " 230.0000 :  1 0.990123 0.990123 -14.09331   1    1 1.1000 0.9000   400101   391231   0 0   1 0    0.00000    0.00000 0    0.00000    0.00000    0.00000
     87 "1           " 230.0000 :  1 0.990409 0.990409  -7.50751   1    1 1.1000 0.9000   400101   391231   0 0   1 0    0.00000    0.00000 0    0.00000    0.00000    0.00000
     88 "1           " 230.0000 :  1 1.014960 1.014960 -21.39662   1    1 1.1000 0.9000   400101   391231   0 0   1 0    0.00000    0.00000 0    0.00000    0.00000    0.00000
     89 "1           " 115.0000 :  1 1.030830 1.030830 -11.07484   1    1 1.1000 0.9000   400101   391231   0 0   1 0    0.00000    0.00000 0    0.00000    0.00000    0.00000
     90 "1           " 115.0000 :  1 1.026325 1.026325 -11.25729   1    1 1.1000 0.9000   400101   391231   0 0   1 0    0.00000    0.00000 0    0.00000    0.00000    0.00000
     91 "1           " 115.0000 :  2 1.05200 1.052000  -9.33098   1    1 1.1000 0.9000   400101   391231   0 0   1 0    0.00000    0.00000 0    0.00000    0.00000    0.00000
     92 "1           " 115.0000 :  2 1.05200 1.052000  -6.23256   1    1 1.1000 0.9000   400101   391231   0 0   1 0    0.00000    0.00000 0    0.00000    0.00000    0.00000
     94 "1           " 115.0000 :  1 0.991907 0.991907  -9.19836   1    1 1.1000 0.9000   400101   391231   0 0   1 0    0.00000    0.00000 0    0.00000    0.00000    0.00000
     97 "1           " 115.0000 :  1 1.018028 1.018028 -13.17769   1    1 1.1000 0.9000   400101   391231   0 0   1 0    0.00000    0.00000 0    0.00000    0.00000    0.00000
     98 "1           " 115.0000 :  2 1.00000 1.000000 -14.54541   1    1 1.1000 0.9000   400101   391231   0 0   1 0    0.00000    0.00000 0    0.00000    0.00000    0.00000
     99 "1           " 115.0000 :  1 0.989327 0.989327 -20.29518   1    1 1.1000 0.9000   400101   391231   0 0   1 0    0.00000    0.00000 0    0.00000    0.00000    0.00000
    100 "1           " 115.0000 :  1 1.005824 1.005824 -14.38330   1    1 1.1000 0.9000   400101   391231   0 0   1 0    0.00000    0.00000 0    0.00000    0.00000    0.00000
    102 "1           " 115.0000 :  1 1.000469 1.000469 -15.16422   1    1 1.1000 0.9000   400101   391231   0 0   1 0    0.00000    0.00000 0    0.00000    0.00000    0.00000
    103 "1           " 115.0000 :  1 1.028570 1.028570 -12.08023   1    1 1.1000 0.9000   400101   391231   0 0   1 0    0.00000    0.00000 0    0.00000    0.00000    0.00000
    104 "1           " 115.0000 :  1 0.995550 0.995550 -17.29012   1    1 1.1000 0.9000   400101   391231   0 0   1 0    0.00000    0.00000 0    0.00000    0.00000    0.00000
    105 "1           " 115.0000 :  1 1.022056 1.022056 -12.98620   1    1 1.1000 0.9000   400101   391231   0 0   1 0    0.00000    0.00000 0    0.00000    0.00000    0.00000
    107 "1           " 115.0000 :  1 1.009190 1.009190 -16.11174   1    1 1.1000 0.9000   400101   391231   0 0   1 0    0.00000    0.00000 0    0.00000    0.00000    0.00000
    108 "1           " 115.0000 :  2 0.99000 0.990000 -20.28360   1    1 1.1000 0.9000   400101   391231   0 0   1 0    0.00000    0.00000 0    0.00000    0.00000    0.00000
    109 "1           " 115.0000 :  1 0.974886 0.974886 -26.24392   1    1 1.1000 0.9000   400101   391231   0 0   1 0    0.00000    0.00000 0    0.00000    0.00000    0.00000
    110 "1           " 115.0000 :  1 0.972864 0.972864 -24.82871   1    1 1.1000 0.9000   400101   391231   0 0   1 0    0.00000    0.00000 0    0.00000    0.00000    0.00000
    112 "1           " 115.0000 :  1 0.972560 0.972560 -28.90554   1    1 1.1000 0.9000   400101   391231   0 0   1 0    0.00000    0.00000 0    0.00000    0.00000    0.00000
    113 "1           " 115.0000 :  1 0.970146 0.970146 -25.76196   1    1 1.1000 0.9000   400101   391231   0 0   1 0    0.00000    0.00000 0    0.00000    0.00000    0.00000
    114 "1           " 115.0000 :  1 0.974731 0.974731 -28.81112   1    1 1.1000 0.9000   400101   391231   0 0   1 0    0.00000    0.00000 0    0.00000    0.00000    0.00000
    115 "2           " 115.0000 :  1 0.918745 0.918745  11.59429   2    2 1.1000 0.9000   400101   391231   0 0   1 0    0.00000    0.00000 0    0.00000    0.00000    0.00000
    116 "2           " 115.0000 :  1 0.980600 0.980600  18.93551   2    2 1.1000 0.9000   400101   391231   0 0   1 0    0.00000    0.00000 0    0.00000    0.00000    0.00000
    117 "2           " 115.0000 :  1 0.908937 0.908937  25.06689   2    2 1.1000 0.9000   400101   391231   0 0   1 0    0.00000    0.00000 0    0.00000    0.00000    0.00000
    118 "2           " 115.0000 :  1 0.903903 0.903903  26.21122   2    2 1.1000 0.9000   400101   391231   0 0   1 0    0.00000    0.00000 0    0.00000    0.00000    0.00000
    119 "2           " 115.0000 :  2 1.04350 1.043500  40.98735   2    2 1.1000 0.9000   400101   391231   0 0   1 0    0.00000    0.00000 0    0.00000    0.00000    0.00000
    120 "2           " 115.0000 :  1 0.998190 0.998190  37.72662   2    2 1.1000 0.9000   400101   391231   0 0   1 0    0.00000    0.00000 0    0.00000    0.00000    0.00000
    121 "2           " 115.0000 :  1 0.848444 0.848444  14.98824   2    2 1.1000 0.9000   400101   391231   0 0   1 0    0.00000    0.00000 0    0.00000    0.00000    0.00000
    122 "2           " 115.0000 :  1 0.896427 0.896427   9.24224   2    2 1.1000 0.9000   400101   391231   0 0   1 0    0.00000    0.00000 0    0.00000    0.00000    0.00000
    123 "2           " 115.0000 :  1 0.920551 0.920551   4.22662   2    2 1.1000 0.9000   400101   391231   0 0   1 0    0.00000    0.00000 0    0.00000    0.00000    0.00000
    124 "2           " 115.0000 :  2 1.02330 0.963434  15.61398   2    2 1.1000 0.9000   400101   391231   0 0   1 0    0.00000    0.00000 0    0.00000    0.00000    0.00000
    125 "2           " 115.0000 :  2 1.01030 0.944556  -6.23819   2    2 1.1000 0.9000   400101   391231   0 0   1 0    0.00000    0.00000 0    0.00000    0.00000    0.00000
    126 "2           " 115.0000 :  1 0.942907 0.942907  -1.53154   2    2 1.1000 0.9000   400101   391231   0 0   1 0    0.00000    0.00000 0    0.00000    0.00000    0.00000
    127 "2           " 230.0000 :  1 0.975808 0.975808  -7.15345   2    2 1.1000 0.9000   400101   391231   0 0   1 0    0.00000    0.00000 0    0.00000    0.00000    0.00000
    128 "2           " 230.0000 :  1 0.989786 0.989786  -5.11979   2    2 1.1000 0.9000   400101   391231   0 0   1 0    0.00000    0.00000 0    0.00000    0.00000    0.00000
    129 "2           " 230.0000 :  1 0.987555 0.987555  -4.26299   2    2 1.1000 0.9000   400101   391231   0 0   1 0    0.00000    0.00000 0    0.00000    0.00000    0.00000
    130 "2           " 230.0000 :  1 1.012488 1.012488   6.37601   2    2 1.1000 0.9000   400101   391231   0 0   1 0    0.00000    0.00000 0    0.00000    0.00000    0.00000
    131 "2           " 230.0000 :  1 0.982240 0.982240   6.71463   2    2 1.1000 0.9000   400101   391231   0 0   1 0    0.00000    0.00000 0    0.00000    0.00000    0.00000
    132 "2           " 230.0000 :  1 0.996553 0.996553   4.65404   2    2 1.1000 0.9000   400101   391231   0 0   1 0    0.00000    0.00000 0    0.00000    0.00000    0.00000
    133 "2           " 230.0000 :  1 0.991131 0.991131  -7.36010   2    2 1.1000 0.9000   400101   391231   0 0   1 0    0.00000    0.00000 0    0.00000    0.00000    0.00000
    134 "2           " 230.0000 :  1 1.010793 1.010793  -6.35890   2    2 1.1000 0.9000   400101   391231   0 0   1 0    0.00000    0.00000 0    0.00000    0.00000    0.00000
    135 "2           " 230.0000 :  1 1.013241 1.013241  -6.49676   2    2 1.1000 0.9000   400101   391231   0 0   1 0    0.00000    0.00000 0    0.00000    0.00000    0.00000
    136 "2           " 230.0000 :  1 1.045974 1.045974  -1.13525   2    2 1.1000 0.9000   400101   391231   0 0   1 0    0.00000    0.00000 0    0.00000    0.00000    0.00000
    137 "2           " 230.0000 :  1 1.042548 1.042548  -7.39968   2    2 1.1000 0.9000   400101   391231   0 0   1 0    0.00000    0.00000 0    0.00000    0.00000    0.00000
    138 "2           " 230.0000 :  2 1.05500 1.051505 -16.85407   2    2 1.1000 0.9000   400101   391231   0 0   1 0    0.00000    0.00000 0    0.00000    0.00000    0.00000
    139 "2           " 115.0000 :  1 1.010375 1.010375  -9.30551   2    2 1.1000 0.9000   400101   391231   0 0   1 0    0.00000    0.00000 0    0.00000    0.00000    0.00000
    140 "2           " 230.0000 :  1 1.039870 1.039870  -9.18534   2    2 1.1000 0.9000   400101   391231   0 0   1 0    0.00000    0.00000 0    0.00000    0.00000    0.00000
    141 "2           " 230.0000 :  2 1.05100 1.051000  -5.48007   2    2 1.1000 0.9000   400101   391231   0 0   1 0    0.00000    0.00000 0    0.00000    0.00000    0.00000
    142 "2           " 230.0000 :  1 1.013722 1.013722  -7.51556   2    2 1.1000 0.9000   400101   391231   0 0   1 0    0.00000    0.00000 0    0.00000    0.00000    0.00000
    143 "2           " 230.0000 :  2 1.04350 1.043500  -0.17052   2    2 1.1000 0.9000   400101   391231   0 0   1 0    0.00000    0.00000 0    0.00000    0.00000    0.00000
    144 "2           " 230.0000 :  1 1.016669 1.016669  -3.14896   2    2 1.1000 0.9000   400101   391231   0 0   1 0    0.00000    0.00000 0    0.00000    0.00000    0.00000
    145 "2           " 230.0000 :  1 1.007570 1.007570  -4.84072   2    2 1.1000 0.9000   400101   391231   0 0   1 0    0.00000    0.00000 0    0.00000    0.00000    0.00000
    146 "2           " 230.0000 :  2 1.05280 1.052384  -0.72953   2    2 1.1000 0.9000   400101   391231   0 0   1 0    0.00000    0.00000 0    0.00000    0.00000    0.00000
    147 "2           " 230.0000 :  2 1.05280 1.052800   3.22547   2    2 1.1000 0.9000   400101   391231   0 0   1 0    0.00000    0.00000 0    0.00000    0.00000    0.00000
    148 "2           " 230.0000 :  1 1.057652 1.057652  -4.01665   2    2 1.1000 0.9000   400101   391231   0 0   1 0    0.00000    0.00000 0    0.00000    0.00000    0.00000
    149 "2           " 230.0000 :  2 1.07350 1.073175   0.85160   2    2 1.1000 0.9000   400101   391231   0 0   1 0    0.00000    0.00000 0    0.00000    0.00000    0.00000
    150 "2           " 230.0000 :  1 0.982759 0.982759   7.00008   2    2 1.1000 0.9000   400101   391231   0 0   1 0    0.00000    0.00000 0    0.00000    0.00000    0.00000
    151 "2           " 230.0000 :  1 0.998169 0.998169   5.05571   2    2 1.1000 0.9000   400101   391231   0 0   1 0    0.00000    0.00000 0    0.00000    0.00000    0.00000
    152 "2           " 230.0000 :  2 1.05350 1.053500   6.18706   2    2 1.1000 0.9000   400101   391231   0 0   1 0    0.00000    0.00000 0    0.00000    0.00000    0.00000
    153 "2           " 230.0000 :  2 1.04350 1.043500   6.46610   2    2 1.1000 0.9000   400101   391231   0 0   1 0    0.00000    0.00000 0    0.00000    0.00000    0.00000
    154 "2           " 115.0000 :  1 0.965218 0.965218  -6.20253   2    2 1.1000 0.9000   400101   391231   0 0   1 0    0.00000    0.00000 0    0.00000    0.00000    0.00000
    155 "2           " 230.0000 :  1 1.014362 1.014362   1.98873   2    2 1.1000 0.9000   400101   391231   0 0   1 0    0.00000    0.00000 0    0.00000    0.00000    0.00000
    156 "2           " 115.0000 :  2 0.96300 0.959749   0.40107   2    2 1.1000 0.9000   400101   391231   0 0   1 0    0.00000    0.00000 0    0.00000    0.00000    0.00000
    157 "2           " 230.0000 :  1 0.911986 0.911986  10.97921   2    2 1.1000 0.9000   400101   391231   0 0   1 0    0.00000    0.00000 0    0.00000    0.00000    0.00000
    158 "2           " 230.0000 :  1 0.920468 0.920468  10.50475   2    2 1.1000 0.9000   400101   391231   0 0   1 0    0.00000    0.00000 0    0.00000    0.00000    0.00000
    159 "2           " 230.0000 :  1 0.900856 0.900856  15.32342   2    2 1.1000 0.9000   400101   391231   0 0   1 0    0.00000    0.00000 0    0.00000    0.00000    0.00000
    160 "2           " 230.0000 :  1 0.934904 0.934904  13.27313   2    2 1.1000 0.9000   400101   391231   0 0   1 0    0.00000    0.00000 0    0.00000    0.00000    0.00000
    161 "2           " 230.0000 :  1 1.034729 1.034729   4.59788   2    2 1.1000 0.9000   400101   391231   0 0   1 0    0.00000    0.00000 0    0.00000    0.00000    0.00000
    162 "2           " 230.0000 :  1 0.989566 0.989566  13.57324   2    2 1.1000 0.9000   400101   391231   0 0   1 0    0.00000    0.00000 0    0.00000    0.00000    0.00000
    163 "2           " 230.0000 :  1 1.035817 1.035817  -2.64178   2    2 1.1000 0.9000   400101   391231   0 0   1 0    0.00000    0.00000 0    0.00000    0.00000    0.00000
    164 "2           " 230.0000 :  1 0.980527 0.980527   4.68812   2    2 1.1000 0.9000   400101   391231   0 0   1 0    0.00000    0.00000 0    0.00000    0.00000    0.00000
    165 "2           " 230.0000 :  1 0.998982 0.998982  21.40444   2    2 1.1000 0.9000   400101   391231   0 0   1 0    0.00000    0.00000 0    0.00000    0.00000    0.00000
    166 "2           " 230.0000 :  1 0.996571 0.996571  25.32319   2    2 1.1000 0.9000   400101   391231   0 0   1 0    0.00000    0.00000 0    0.00000    0.00000    0.00000
    167 "2           " 230.0000 :  1 0.956010 0.956010  -6.84393   2    2 1.1000 0.9000   400101   391231   0 0   1 0    0.00000    0.00000 0    0.00000    0.00000    0.00000
    168 "2           " 230.0000 :  1 0.989810 0.989810  -5.14556   2    2 1.1000 0.9000   400101   391231   0 0   1 0    0.00000    0.00000 0    0.00000    0.00000    0.00000
    169 "2           " 230.0000 :  1 0.971418 0.971418  -6.71420   2    2 1.1000 0.9000   400101   391231   0 0   1 0    0.00000    0.00000 0    0.00000    0.00000    0.00000
    170 "2           " 115.0000 :  2 0.92900 0.921775   1.29799   2    2 1.1000 0.9000   400101   391231   0 0   1 0    0.00000    0.00000 0    0.00000    0.00000    0.00000
    171 "2           " 115.0000 :  2 0.98290 0.971734 -11.93627   2    2 1.1000 0.9000   400101   391231   0 0   1 0    0.00000    0.00000 0    0.00000    0.00000    0.00000
    172 "2           " 115.0000 :  1 1.023878 1.023878 -11.75373   2    2 1.1000 0.9000   400101   391231   0 0   1 0    0.00000    0.00000 0    0.00000    0.00000    0.00000
    173 "2           " 115.0000 :  1 0.982328 0.982328 -17.92188   2    2 1.1000 0.9000   400101   391231   0 0   1 0    0.00000    0.00000 0    0.00000    0.00000    0.00000
    174 "2           " 115.0000 :  1 1.061971 1.061971  -8.17962   2    2 1.1000 0.9000   400101   391231   0 0   1 0    0.00000    0.00000 0    0.00000    0.00000    0.00000
    175 "2           " 115.0000 :  1 0.971477 0.971477 -11.99359   2    2 1.1000 0.9000   400101   391231   0 0   1 0    0.00000    0.00000 0    0.00000    0.00000    0.00000
    176 "2           " 115.0000 :  2 1.05220 1.052200  -0.10799   2    2 1.1000 0.9000   400101   391231   0 0   1 0    0.00000    0.00000 0    0.00000    0.00000    0.00000
    177 "2           " 115.0000 :  2 1.00770 1.007542  -4.08304   2    2 1.1000 0.9000   400101   391231   0 0   1 0    0.00000    0.00000 0    0.00000    0.00000    0.00000
    178 "2           " 115.0000 :  1 0.939167 0.939167 -11.19098   2    2 1.1000 0.9000   400101   391231   0 0   1 0    0.00000    0.00000 0    0.00000    0.00000    0.00000
    179 "2           " 115.0000 :  1 0.968734 0.968734 -13.96406   2    2 1.1000 0.9000   400101   391231   0 0   1 0    0.00000    0.00000 0    0.00000    0.00000    0.00000
    180 "2           " 115.0000 :  1 0.978737 0.978737  -7.75588   2    2 1.1000 0.9000   400101   391231   0 0   1 0    0.00000    0.00000 0    0.00000    0.00000    0.00000
    181 "2           " 230.0000 :  1 1.046668 1.046668  -7.92154   2    2 1.1000 0.9000   400101   391231   0 0   1 0    0.00000    0.00000 0    0.00000    0.00000    0.00000
    182 "2           " 230.0000 :  1 1.042157 1.042157  -9.93955   2    2 1.1000 0.9000   400101   391231   0 0   1 0    0.00000    0.00000 0    0.00000    0.00000    0.00000
    183 "2           " 115.0000 :  1 0.971439 0.971439   3.05846   2    2 1.1000 0.9000   400101   391231   0 0   1 0    0.00000    0.00000 0    0.00000    0.00000    0.00000
    184 "2           " 230.0000 :  1 1.034152 1.034152  -5.18278   2    2 1.1000 0.9000   400101   391231   0 0   1 0    0.00000    0.00000 0    0.00000    0.00000    0.00000
    185 "2           " 230.0000 :  2 1.05220 1.052200  -2.68263   2    2 1.1000 0.9000   400101   391231   0 0   1 0    0.00000    0.00000 0    0.00000    0.00000    0.00000
    186 "2           " 230.0000 :  2 1.06500 1.065000  -4.15477   2    2 1.1000 0.9000   400101   391231   0 0   1 0    0.00000    0.00000 0    0.00000    0.00000    0.00000
    187 "2           " 230.0000 :  2 1.06500 1.065000  -5.17607   2    2 1.1000 0.9000   400101   391231   0 0   1 0    0.00000    0.00000 0    0.00000    0.00000    0.00000
    188 "2           " 230.0000 :  1 1.049104 1.049104  -7.26184   2    2 1.1000 0.9000   400101   391231   0 0   1 0    0.00000    0.00000 0    0.00000    0.00000    0.00000
    189 "3           "  66.0000 :  1 0.997531 0.997531 -26.24329   3    3 1.1000 0.9000   400101   391231   0 0   1 0    0.00000    0.00000 0    0.00000    0.00000    0.00000
    190 "3           " 345.0000 :  2 1.05510 1.055100 -21.04358   3    3 1.1000 0.9000   400101   391231   0 0   1 0    0.00000    0.00000 0    0.00000    0.00000    0.00000
    191 "3           " 230.0000 :  2 1.04350 1.043500  11.82372   3    3 1.1000 0.9000   400101   391231   0 0   1 0    0.00000    0.00000 0    0.00000    0.00000    0.00000
    192 "3           " 230.0000 :  1 0.937455 0.937455 -11.60560   3    3 1.1000 0.9000   400101   391231   0 0   1 0    0.00000    0.00000 0    0.00000    0.00000    0.00000
    193 "3           "  66.0000 :  1 0.989636 0.989636 -26.48479   3    3 1.1000 0.9000   400101   391231   0 0   1 0    0.00000    0.00000 0    0.00000    0.00000    0.00000
    194 "3           " 345.0000 :  1 1.048661 1.048661 -19.63112   3    3 1.1000 0.9000   400101   391231   0 0   1 0    0.00000    0.00000 0    0.00000    0.00000    0.00000
    195 "3           " 345.0000 :  1 1.035574 1.035574 -21.20837   3    3 1.1000 0.9000   400101   391231   0 0   1 0    0.00000    0.00000 0    0.00000    0.00000    0.00000
    196 "3           " 115.0000 :  1 0.969474 0.969474 -25.73155   3    3 1.1000 0.9000   400101   391231   0 0   1 0    0.00000    0.00000 0    0.00000    0.00000    0.00000
    197 "3           " 115.0000 :  1 0.990673 0.990673 -24.13432   3    3 1.1000 0.9000   400101   391231   0 0   1 0    0.00000    0.00000 0    0.00000    0.00000    0.00000
    198 "3           " 115.0000 :  2 1.01500 1.015000 -21.00071   3    3 1.1000 0.9000   400101   391231   0 0   1 0    0.00000    0.00000 0    0.00000    0.00000    0.00000
    199 "3           " 115.0000 :  1 0.952844 0.952844 -26.45994   3    3 1.1000 0.9000   400101   391231   0 0   1 0    0.00000    0.00000 0    0.00000    0.00000    0.00000
    200 "3           " 115.0000 :  1 0.955080 0.955080 -26.34964   3    3 1.1000 0.9000   400101   391231   0 0   1 0    0.00000    0.00000 0    0.00000    0.00000    0.00000
    201 "1           "  66.0000 :  1 0.969104 0.969104 -27.90938   1    1 1.1000 0.9000   400101   391231   0 0   1 0    0.00000    0.00000 0    0.00000    0.00000    0.00000
    202 "3           "  66.0000 :  1 0.990810 0.990810 -25.75172   3    3 1.1000 0.9000   400101   391231   0 0   1 0    0.00000    0.00000 0    0.00000    0.00000    0.00000
    203 "3           " 115.0000 :  1 1.003313 1.003313 -22.76951   3    3 1.1000 0.9000   400101   391231   0 0   1 0    0.00000    0.00000 0    0.00000    0.00000    0.00000
    204 "3           "  66.0000 :  1 0.971748 0.971748 -26.10238   3    3 1.1000 0.9000   400101   391231   0 0   1 0    0.00000    0.00000 0    0.00000    0.00000    0.00000
    205 "3           "  66.0000 :  1 0.983766 0.983766 -26.45763   3    3 1.1000 0.9000   400101   391231   0 0   1 0    0.00000    0.00000 0    0.00000    0.00000    0.00000
    206 "3           "  66.0000 :  1 0.999390 0.999390 -27.71761   3    3 1.1000 0.9000   400101   391231   0 0   1 0    0.00000    0.00000 0    0.00000    0.00000    0.00000
    207 "1           "  66.0000 :  1 1.014124 1.014124 -27.71326   1    1 1.1000 0.9000   400101   391231   0 0   1 0    0.00000    0.00000 0    0.00000    0.00000    0.00000
    208 "3           "  66.0000 :  1 0.992833 0.992833 -26.66364   3    3 1.1000 0.9000   400101   391231   0 0   1 0    0.00000    0.00000 0    0.00000    0.00000    0.00000
    209 "3           "  66.0000 :  1 0.999910 0.999910 -26.05926   3    3 1.1000 0.9000   400101   391231   0 0   1 0    0.00000    0.00000 0    0.00000    0.00000    0.00000
    210 "3           " 115.0000 :  1 0.978814 0.978814 -24.63394   3    3 1.1000 0.9000   400101   391231   0 0   1 0    0.00000    0.00000 0    0.00000    0.00000    0.00000
    211 "3           " 115.0000 :  1 1.001611 1.001611 -23.73510   3    3 1.1000 0.9000   400101   391231   0 0   1 0    0.00000    0.00000 0    0.00000    0.00000    0.00000
    212 "3           " 138.0000 :  1 1.013118 1.013118 -22.92822   3    3 1.1000 0.9000   400101   391231   0 0   1 0    0.00000    0.00000 0    0.00000    0.00000    0.00000
    213 "3           "  16.5000 :  2 1.01000 1.010000 -12.09652   3    3 1.1000 0.9000   400101   391231   0 0   1 0    0.00000    0.00000 0    0.00000    0.00000    0.00000
    214 "3           " 138.0000 :  1 0.991867 0.991867 -17.95525   3    3 1.1000 0.9000   400101   391231   0 0   1 0    0.00000    0.00000 0    0.00000    0.00000    0.00000
    215 "3           " 138.0000 :  1 0.986625 0.986625 -20.65592   3    3 1.1000 0.9000   400101   391231   0 0   1 0    0.00000    0.00000 0    0.00000    0.00000    0.00000
    216 "3           " 138.0000 :  1 0.975132 0.975132 -22.95247   3    3 1.1000 0.9000   400101   391231   0 0   1 0    0.00000    0.00000 0    0.00000    0.00000    0.00000
    217 "3           " 138.0000 :  1 1.021495 1.021495 -22.62265   3    3 1.1000 0.9000   400101   391231   0 0   1 0    0.00000    0.00000 0    0.00000    0.00000    0.00000
    218 "3           " 138.0000 :  1 1.007513 1.007513 -23.05188   3    3 1.1000 0.9000   400101   391231   0 0   1 0    0.00000    0.00000 0    0.00000    0.00000    0.00000
    219 "3           " 345.0000 :  1 1.055353 1.055353 -21.57282   3    3 1.1000 0.9000   400101   391231   0 0   1 0    0.00000    0.00000 0    0.00000    0.00000    0.00000
    220 "3           " 138.0000 :  2 1.00800 1.008000 -22.15042   3    3 1.1000 0.9000   400101   391231   0 0   1 0    0.00000    0.00000 0    0.00000    0.00000    0.00000
    221 "3           " 138.0000 :  2 1.00000 1.000000 -22.91434   3    3 1.1000 0.9000   400101   391231   0 0   1 0    0.00000    0.00000 0    0.00000    0.00000    0.00000
...
branch data  [  306]                                          ck  se  ------------long_id_------------    st resist   react   charge   rate1  rate2  rate3  rate4 aloss  lngth 
      1 "1           " 115.00       5 "1           " 115.00  "1 "  1 "                                " :  1  0.001000  0.006000  0.000000    0.0    0.0    0.0    0.0 0.000    1.0 /
   1    1  0.000000  0.000000  1.000000   400101   391231   0 1  0    0.0    0.0    0.0    0.0   1 1.000   0 0.000   0 0.000   0 0.000   0 0.000   0 0.000   0 0.000   0 0.000  0 0 
      2 "1           " 115.00       6 "1           " 115.00  "1 "  1 "                                " :  1  0.001000  0.009000  0.000000    0.0    0.0    0.0    0.0 0.000    1.0 /
   1    1  0.000000  0.000000  1.000000   400101   391231   0 1  0    0.0    0.0    0.0    0.0   1 1.000   0 0.000   0 0.000   0 0.000   0 0.000   0 0.000   0 0.000   0 0.000  0 0 
      2 "1           " 115.00       8 "1           " 115.00  "1 "  1 "                                " :  1  0.006000  0.027000  0.054000    0.0    0.0    0.0    0.0 0.000    1.0 /
   1    1  0.000000  0.000000  1.000000   400101   391231   0 1  0    0.0    0.0    0.0    0.0   1 1.000   0 0.000   0 0.000   0 0.000   0 0.000   0 0.000   0 0.000   0 0.000  0 0 
      3 "1           " 230.00       7 "1           " 230.00  "1 "  1 "                                " :  1  0.000000  0.003000  0.000000    0.0    0.0    0.0    0.0 0.000    1.0 /
   1    1  0.000000  0.000000  1.000000   400101   391231   0 1  0    0.0    0.0    0.0    0.0   1 1.000   0 0.000   0 0.000   0 0.000   0 0.000   0 0.000   0 0.000   0 0.000  0 0 
      3 "1           " 230.00      19 "1           " 230.00  "1 "  1 "                                " :  1  0.008000  0.069000  0.139000    0.0    0.0    0.0    0.0 0.000    1.0 /
   1    1  0.000000  0.000000  1.000000   400101   391231   0 1  0    0.0    0.0    0.0    0.0   1 1.000   0 0.000   0 0.000   0 0.000   0 0.000   0 0.000   0 0.000   0 0.000  0 0 
      3 "1           " 230.00     150 "2           " 230.00  "1 "  1 "                                " :  1  0.001000  0.007000  0.000000    0.0    0.0    0.0    0.0 0.000    1.0 /
   2    2  0.000000  0.000000  1.000000   400101   391231   0 1  0    0.0    0.0    0.0    0.0   1 1.000   0 0.000   0 0.000   0 0.000   0 0.000   0 0.000   0 0.000   0 0.000  0 0 
      4 "1           " 345.00      16 "1           " 345.00  "1 "  1 "                                " :  1  0.002000  0.019000  1.127000    0.0    0.0    0.0    0.0 0.000    1.0 /
   1    1  0.000000  0.000000  1.000000   400101   391231   0 1  0    0.0    0.0    0.0    0.0   1 1.000   0 0.000   0 0.000   0 0.000   0 0.000   0 0.000   0 0.000   0 0.000  0 0 
      5 "1           " 115.00       9 "1           " 115.00  "1 "  1 "                                " :  1  0.006000  0.029000  0.018000    0.0    0.0    0.0    0.0 0.000    1.0 /
   1    1  0.000000  0.000000  1.000000   400101   391231   0 1  0    0.0    0.0    0.0    0.0   1 1.000   0 0.000   0 0.000   0 0.000   0 0.000   0 0.000   0 0.000   0 0.000  0 0 
      7 "1           " 230.00      12 "1           " 230.00  "1 "  1 "                                " :  1  0.001000  0.009000  0.070000    0.0    0.0    0.0    0.0 0.000    1.0 /
   1    1  0.000000  0.000000  1.000000   400101   391231   0 1  0    0.0    0.0    0.0    0.0   1 1.000   0 0.000   0 0.000   0 0.000   0 0.000   0 0.000   0 0.000   0 0.000  0 0 
      7 "1           " 230.00     131 "2           " 230.00  "1 "  1 "                                " :  1  0.001000  0.007000  0.014000    0.0    0.0    0.0    0.0 0.000    1.0 /
   2    2  0.000000  0.000000  1.000000   400101   391231   0 1  0    0.0    0.0    0.0    0.0   1 1.000   0 0.000   0 0.000   0 0.000   0 0.000   0 0.000   0 0.000   0 0.000  0 0 
      8 "1           " 115.00      11 "1           " 115.00  "1 "  1 "                                " :  1  0.013000  0.059500  0.033000    0.0    0.0    0.0    0.0 0.000    1.0 /
   1    1  0.000000  0.000000  1.000000   400101   391231   0 1  0    0.0    0.0    0.0    0.0   1 1.000   0 0.000   0 0.000   0 0.000   0 0.000   0 0.000   0 0.000   0 0.000  0 0 
      8 "1           " 115.00      14 "1           " 115.00  "1 "  1 "                                " :  1  0.013000  0.042000  0.081000    0.0    0.0    0.0    0.0 0.000    1.0 /
   1    1  0.000000  0.000000  1.000000   400101   391231   0 1  0    0.0    0.0    0.0    0.0   1 1.000   0 0.000   0 0.000   0 0.000   0 0.000   0 0.000   0 0.000   0 0.000  0 0 
      9 "1           " 115.00      11 "1           " 115.00  "1 "  1 "                                " :  1  0.006000  0.027000  0.013000    0.0    0.0    0.0    0.0 0.000    1.0 /
   1    1  0.000000  0.000000  1.000000   400101   391231   0 1  0    0.0    0.0    0.0    0.0   1 1.000   0 0.000   0 0.000   0 0.000   0 0.000   0 0.000   0 0.000   0 0.000  0 0 
     11 "1           " 115.00      13 "1           " 115.00  "1 "  1 "                                " :  1  0.008000  0.034000  0.018000    0.0    0.0    0.0    0.0 0.000    1.0 /
   1    1  0.000000  0.000000  1.000000   400101   391231   0 1  0    0.0    0.0    0.0    0.0   1 1.000   0 0.000   0 0.000   0 0.000   0 0.000   0 0.000   0 0.000   0 0.000  0 0 
     12 "1           " 230.00      21 "1           " 230.00  "1 "  1 "                                " :  1  0.002000  0.015000  0.118000    0.0    0.0    0.0    0.0 0.000    1.0 /
   1    1  0.000000  0.000000  1.000000   400101   391231   0 1  0    0.0    0.0    0.0    0.0   1 1.000   0 0.000   0 0.000   0 0.000   0 0.000   0 0.000   0 0.000   0 0.000  0 0 
     13 "1           " 115.00      20 "1           " 115.00  "1 "  1 "                                " :  1  0.006000  0.034000  0.016000    0.0    0.0    0.0    0.0 0.000    1.0 /
   1    1  0.000000  0.000000  1.000000   400101   391231   0 1  0    0.0    0.0    0.0    0.0   1 1.000   0 0.000   0 0.000   0 0.000   0 0.000   0 0.000   0 0.000   0 0.000  0 0 
     14 "1           " 115.00      15 "1           " 115.00  "1 "  1 "                                " :  1  0.014000  0.042000  0.097000    0.0    0.0    0.0    0.0 0.000    1.0 /
   1    1  0.000000  0.000000  1.000000   400101   391231   0 1  0    0.0    0.0    0.0    0.0   1 1.000   0 0.000   0 0.000   0 0.000   0 0.000   0 0.000   0 0.000   0 0.000  0 0 
     15 "1           " 115.00      37 "1           " 115.00  "1 "  1 "                                " :  1  0.065000  0.248000  0.121000    0.0    0.0    0.0    0.0 0.000    1.0 /
   1    1  0.000000  0.000000  1.000000   400101   391231   0 1  0    0.0    0.0    0.0    0.0   1 1.000   0 0.000   0 0.000   0 0.000   0 0.000   0 0.000   0 0.000   0 0.000  0 0 
     15 "1           " 115.00      89 "1           " 115.00  "1 "  1 "                                " :  1  0.099000  0.248000  0.035000    0.0    0.0    0.0    0.0 0.000    1.0 /
   1    1  0.000000  0.000000  1.000000   400101   391231   0 1  0    0.0    0.0    0.0    0.0   1 1.000   0 0.000   0 0.000   0 0.000   0 0.000   0 0.000   0 0.000   0 0.000  0 0 
     15 "1           " 115.00      90 "1           " 115.00  "1 "  1 "                                " :  1  0.096000  0.363000  0.048000    0.0    0.0    0.0    0.0 0.000    1.0 /
   1    1  0.000000  0.000000  1.000000   400101   391231   0 1  0    0.0    0.0    0.0    0.0   1 1.000   0 0.000   0 0.000   0 0.000   0 0.000   0 0.000   0 0.000   0 0.000  0 0 
     16 "1           " 345.00      42 "1           " 345.00  "1 "  1 "                                " :  1  0.002000  0.022000  1.280000    0.0    0.0    0.0    0.0 0.000    1.0 /
   1    1  0.000000  0.000000  1.000000   400101   391231   0 1  0    0.0    0.0    0.0    0.0   1 1.000   0 0.000   0 0.000   0 0.000   0 0.000   0 0.000   0 0.000   0 0.000  0 0 
     19 "1           " 230.00      21 "1           " 230.00  "1 "  1 "                                " :  1  0.002000  0.018000  0.036000    0.0    0.0    0.0    0.0 0.000    1.0 /
   1    1  0.000000  0.000000  1.000000   400101   391231   0 1  0    0.0    0.0    0.0    0.0   1 1.000   0 0.000   0 0.000   0 0.000   0 0.000   0 0.000   0 0.000   0 0.000  0 0 
     19 "1           " 230.00      87 "1           " 230.00  "1 "  1 "                                " :  1  0.013000  0.080000  0.151000    0.0    0.0    0.0    0.0 0.000    1.0 /
   1    1  0.000000  0.000000  1.000000   400101   391231   0 1  0    0.0    0.0    0.0    0.0   1 1.000   0 0.000   0 0.000   0 0.000   0 0.000   0 0.000   0 0.000   0 0.000  0 0 
     20 "1           " 115.00      22 "1           " 115.00  "1 "  1 "                                " :  1  0.016000  0.033000  0.015000    0.0    0.0    0.0    0.0 0.000    1.0 /
   1    1  0.000000  0.000000  1.000000   400101   391231   0 1  0    0.0    0.0    0.0    0.0   1 1.000   0 0.000   0 0.000   0 0.000   0 0.000   0 0.000   0 0.000   0 0.000  0 0 
     20 "1           " 115.00      27 "1           " 115.00  "1 "  1 "                                " :  1  0.069000  0.186000  0.098000    0.0    0.0    0.0    0.0 0.000    1.0 /
   1    1  0.000000  0.000000  1.000000   400101   391231   0 1  0    0.0    0.0    0.0    0.0   1 1.000   0 0.000   0 0.000   0 0.000   0 0.000   0 0.000   0 0.000   0 0.000  0 0 
     21 "1           " 230.00      24 "1           " 230.00  "1 "  1 "                                " :  1  0.004000  0.034000  0.280000    0.0    0.0    0.0    0.0 0.000    1.0 /
   1    1  0.000000  0.000000  1.000000   400101   391231   0 1  0    0.0    0.0    0.0    0.0   1 1.000   0 0.000   0 0.000   0 0.000   0 0.000   0 0.000   0 0.000   0 0.000  0 0 
     22 "1           " 115.00      23 "1           " 115.00  "1 "  1 "                                " :  1  0.052000  0.111000  0.050000    0.0    0.0    0.0    0.0 0.000    1.0 /
   1    1  0.000000  0.000000  1.000000   400101   391231   0 1  0    0.0    0.0    0.0    0.0   1 1.000   0 0.000   0 0.000   0 0.000   0 0.000   0 0.000   0 0.000   0 0.000  0 0 
     23 "1           " 115.00      25 "1           " 115.00  "1 "  1 "                                " :  1  0.019000  0.039000  0.018000    0.0    0.0    0.0    0.0 0.000    1.0 /
   1    1  0.000000  0.000000  1.000000   400101   391231   0 1  0    0.0    0.0    0.0    0.0   1 1.000   0 0.000   0 0.000   0 0.000   0 0.000   0 0.000   0 0.000   0 0.000  0 0 
     24 "1           " 230.00     319 "1           " 230.00  "1 "  1 "                                " :  1  0.007000  0.068000  0.134000    0.0    0.0    0.0    0.0 0.000    1.0 /
   1    1  0.000000  0.000000  1.000000   400101   391231   0 1  0    0.0    0.0    0.0    0.0   1 1.000   0 0.000   0 0.000   0 0.000   0 0.000   0 0.000   0 0.000   0 0.000  0 0 
     25 "1           " 115.00      26 "1           " 115.00  "1 "  1 "                                " :  1  0.036000  0.071000  0.034000    0.0    0.0    0.0    0.0 0.000    1.0 /
   1    1  0.000000  0.000000  1.000000   400101   391231   0 1  0    0.0    0.0    0.0    0.0   1 1.000   0 0.000   0 0.000   0 0.000   0 0.000   0 0.000   0 0.000   0 0.000  0 0 
     26 "1           " 115.00      27 "1           " 115.00  "1 "  1 "                                " :  1  0.045000  0.120000  0.065000    0.0    0.0    0.0    0.0 0.000    1.0 /
   1    1  0.000000  0.000000  1.000000   400101   391231   0 1  0    0.0    0.0    0.0    0.0   1 1.000   0 0.000   0 0.000   0 0.000   0 0.000   0 0.000   0 0.000   0 0.000  0 0 
     26 "1           " 115.00     320 "1           " 115.00  "1 "  1 "                                " :  1  0.043000  0.130000  0.014000    0.0    0.0    0.0    0.0 0.000    1.0 /
   1    1  0.000000  0.000000  1.000000   400101   391231   0 1  0    0.0    0.0    0.0    0.0   1 1.000   0 0.000   0 0.000   0 0.000   0 0.000   0 0.000   0 0.000   0 0.000  0 0 
     33 "1           " 115.00      34 "1           " 345.00  "1 "  1 "                                " :  1  0.000000  0.063000  0.000000    0.0    0.0    0.0    0.0 0.000    1.0 /
   1    1  0.000000  0.000000  1.000000   400101   391231   0 1  0    0.0    0.0    0.0    0.0   1 1.000   0 0.000   0 0.000   0 0.000   0 0.000   0 0.000   0 0.000   0 0.000  0 0 
     33 "1           " 115.00      38 "1           " 115.00  "1 "  1 "                                " :  1  0.002500  0.012000  0.013000    0.0    0.0    0.0    0.0 0.000    1.0 /
   1    1  0.000000  0.000000  1.000000   400101   391231   0 1  0    0.0    0.0    0.0    0.0   1 1.000   0 0.000   0 0.000   0 0.000   0 0.000   0 0.000   0 0.000   0 0.000  0 0 
     33 "1           " 115.00      40 "1           " 115.00  "1 "  1 "                                " :  1  0.006000  0.029000  0.020000    0.0    0.0    0.0    0.0 0.000    1.0 /
   1    1  0.000000  0.000000  1.000000   400101   391231   0 1  0    0.0    0.0    0.0    0.0   1 1.000   0 0.000   0 0.000   0 0.000   0 0.000   0 0.000   0 0.000   0 0.000  0 0 
     33 "1           " 115.00      41 "1           " 115.00  "1 "  1 "                                " :  1  0.007000  0.043000  0.026000    0.0    0.0    0.0    0.0 0.000    1.0 /
   1    1  0.000000  0.000000  1.000000   400101   391231   0 1  0    0.0    0.0    0.0    0.0   1 1.000   0 0.000   0 0.000   0 0.000   0 0.000   0 0.000   0 0.000   0 0.000  0 0 
     34 "1           " 345.00      42 "1           " 345.00  "1 "  1 "                                " :  1  0.001000  0.008000  0.042000    0.0    0.0    0.0    0.0 0.000    1.0 /
   1    1  0.000000  0.000000  1.000000   400101   391231   0 1  0    0.0    0.0    0.0    0.0   1 1.000   0 0.000   0 0.000   0 0.000   0 0.000   0 0.000   0 0.000   0 0.000  0 0 
     35 "1           " 115.00      72 "1           " 115.00  "1 "  1 "                                " :  1  0.012000  0.060000  0.008000    0.0    0.0    0.0    0.0 0.000    1.0 /
   1    1  0.000000  0.000000  1.000000   400101   391231   0 1  0    0.0    0.0    0.0    0.0   1 1.000   0 0.000   0 0.000   0 0.000   0 0.000   0 0.000   0 0.000   0 0.000  0 0 
     35 "1           " 115.00      76 "1           " 115.00  "1 "  1 "                                " :  1  0.006000  0.014000  0.002000    0.0    0.0    0.0    0.0 0.000    1.0 /
   1    1  0.000000  0.000000  1.000000   400101   391231   0 1  0    0.0    0.0    0.0    0.0   1 1.000   0 0.000   0 0.000   0 0.000   0 0.000   0 0.000   0 0.000   0 0.000  0 0 
     35 "1           " 115.00      77 "1           " 115.00  "1 "  1 "                                " :  1  0.010000  0.029000  0.003000    0.0    0.0    0.0    0.0 0.000    1.0 /
   1    1  0.000000  0.000000  1.000000   400101   391231   0 1  0    0.0    0.0    0.0    0.0   1 1.000   0 0.000   0 0.000   0 0.000   0 0.000   0 0.000   0 0.000   0 0.000  0 0 
     36 "1           " 230.00      88 "1           " 230.00  "1 "  1 "                                " :  1  0.004000  0.027000  0.043000    0.0    0.0    0.0    0.0 0.000    1.0 /
   1    1  0.000000  0.000000  1.000000   400101   391231   0 1  0    0.0    0.0    0.0    0.0   1 1.000   0 0.000   0 0.000   0 0.000   0 0.000   0 0.000   0 0.000   0 0.000  0 0 
     37 "1           " 115.00      38 "1           " 115.00  "1 "  1 "                                " :  1  0.008000  0.047000  0.008000    0.0    0.0    0.0    0.0 0.000    1.0 /
   1    1  0.000000  0.000000  1.000000   400101   391231   0 1  0    0.0    0.0    0.0    0.0   1 1.000   0 0.000   0 0.000   0 0.000   0 0.000   0 0.000   0 0.000   0 0.000  0 0 
     37 "1           " 115.00      40 "1           " 115.00  "1 "  1 "                                " :  1  0.022000  0.064000  0.007000    0.0    0.0    0.0    0.0 0.000    1.0 /
   1    1  0.000000  0.000000  1.000000   400101   391231   0 1  0    0.0    0.0    0.0    0.0   1 1.000   0 0.000   0 0.000   0 0.000   0 0.000   0 0.000   0 0.000   0 0.000  0 0 
     37 "1           " 115.00      41 "1           " 115.00  "1 "  1 "                                " :  1  0.010000  0.036000  0.020000    0.0    0.0    0.0    0.0 0.000    1.0 /
   1    1  0.000000  0.000000  1.000000   400101   391231   0 1  0    0.0    0.0    0.0    0.0   1 1.000   0 0.000   0 0.000   0 0.000   0 0.000   0 0.000   0 0.000   0 0.000  0 0 
     37 "1           " 115.00      49 "1           " 115.00  "1 "  1 "                                " :  1  0.017000  0.081000  0.048000    0.0    0.0    0.0    0.0 0.000    1.0 /
   1    1  0.000000  0.000000  1.000000   400101   391231   0 1  0    0.0    0.0    0.0    0.0   1 1.000   0 0.000   0 0.000   0 0.000   0 0.000   0 0.000   0 0.000   0 0.000  0 0 
     37 "1           " 115.00      89 "1           " 115.00  "1 "  1 "                                " :  1  0.102000  0.254000  0.033000    0.0    0.0    0.0    0.0 0.000    1.0 /
   1    1  0.000000  0.000000  1.000000   400101   391231   0 1  0    0.0    0.0    0.0    0.0   1 1.000   0 0.000   0 0.000   0 0.000   0 0.000   0 0.000   0 0.000   0 0.000  0 0 
     37 "1           " 115.00      90 "1           " 115.00  "1 "  1 "                                " :  1  0.047000  0.127000  0.016000    0.0    0.0    0.0    0.0 0.000    1.0 /
   1    1  0.000000  0.000000  1.000000   400101   391231   0 1  0    0.0    0.0    0.0    0.0   1 1.000   0 0.000   0 0.000   0 0.000   0 0.000   0 0.000   0 0.000   0 0.000  0 0 
     38 "1           " 115.00      41 "1           " 115.00  "1 "  1 "                                " :  1  0.008000  0.037000  0.020000    0.0    0.0    0.0    0.0 0.000    1.0 /
   1    1  0.000000  0.000000  1.000000   400101   391231   0 1  0    0.0    0.0    0.0    0.0   1 1.000   0 0.000   0 0.000   0 0.000   0 0.000   0 0.000   0 0.000   0 0.000  0 0 
     38 "1           " 115.00      43 "1           " 115.00  "1 "  1 "                                " :  1  0.032000  0.087000  0.040000    0.0    0.0    0.0    0.0 0.000    1.0 /
   1    1  0.000000  0.000000  1.000000   400101   391231   0 1  0    0.0    0.0    0.0    0.0   1 1.000   0 0.000   0 0.000   0 0.000   0 0.000   0 0.000   0 0.000   0 0.000  0 0 
     39 "1           " 345.00      42 "1           " 345.00  "1 "  1 "                                " :  1  0.000600  0.006400  0.404000    0.0    0.0    0.0    0.0 0.000    1.0 /
   1    1  0.000000  0.000000  1.000000   400101   391231   0 1  0    0.0    0.0    0.0    0.0   1 1.000   0 0.000   0 0.000   0 0.000   0 0.000   0 0.000   0 0.000   0 0.000  0 0 
     40 "1           " 115.00      48 "1           " 115.00  "1 "  1 "                                " :  1  0.026000  0.154000  0.022000    0.0    0.0    0.0    0.0 0.000    1.0 /
   1    1  0.000000  0.000000  1.000000   400101   391231   0 1  0    0.0    0.0    0.0    0.0   1 1.000   0 0.000   0 0.000   0 0.000   0 0.000   0 0.000   0 0.000   0 0.000  0 0 
     41 "1           " 115.00      42 "1           " 345.00  "1 "  1 "                                " :  1  0.000000  0.029000  0.000000    0.0    0.0    0.0    0.0 0.000    1.0 /
   1    1  0.000000  0.000000  1.000000   400101   391231   0 1  0    0.0    0.0    0.0    0.0   1 1.000   0 0.000   0 0.000   0 0.000   0 0.000   0 0.000   0 0.000   0 0.000  0 0 
     41 "1           " 115.00      49 "1           " 115.00  "1 "  1 "                                " :  1  0.065000  0.191000  0.020000    0.0    0.0    0.0    0.0 0.000    1.0 /
   1    1  0.000000  0.000000  1.000000   400101   391231   0 1  0    0.0    0.0    0.0    0.0   1 1.000   0 0.000   0 0.000   0 0.000   0 0.000   0 0.000   0 0.000   0 0.000  0 0 
     41 "1           " 115.00      51 "1           " 115.00  "1 "  1 "                                " :  1  0.031000  0.089000  0.036000    0.0    0.0    0.0    0.0 0.000    1.0 /
   1    1  0.000000  0.000000  1.000000   400101   391231   0 1  0    0.0    0.0    0.0    0.0   1 1.000   0 0.000   0 0.000   0 0.000   0 0.000   0 0.000   0 0.000   0 0.000  0 0 
     42 "1           " 345.00      46 "1           " 345.00  "1 "  1 "                                " :  1  0.002000  0.014000  0.806000    0.0    0.0    0.0    0.0 0.000    1.0 /
   1    1  0.000000  0.000000  1.000000   400101   391231   0 1  0    0.0    0.0    0.0    0.0   1 1.000   0 0.000   0 0.000   0 0.000   0 0.000   0 0.000   0 0.000   0 0.000  0 0 
     43 "1           " 115.00      44 "1           " 115.00  "1 "  1 "                                " :  1  0.026000  0.072000  0.035000    0.0    0.0    0.0    0.0 0.000    1.0 /
   1    1  0.000000  0.000000  1.000000   400101   391231   0 1  0    0.0    0.0    0.0    0.0   1 1.000   0 0.000   0 0.000   0 0.000   0 0.000   0 0.000   0 0.000   0 0.000  0 0 
     43 "1           " 115.00      48 "1           " 115.00  "1 "  1 "                                " :  1  0.095000  0.262000  0.032000    0.0    0.0    0.0    0.0 0.000    1.0 /
   1    1  0.000000  0.000000  1.000000   400101   391231   0 1  0    0.0    0.0    0.0    0.0   1 1.000   0 0.000   0 0.000   0 0.000   0 0.000   0 0.000   0 0.000   0 0.000  0 0 
     43 "1           " 115.00      53 "1           " 115.00  "1 "  1 "                                " :  1  0.013000  0.039000  0.016000    0.0    0.0    0.0    0.0 0.000    1.0 /
   1    1  0.000000  0.000000  1.000000   400101   391231   0 1  0    0.0    0.0    0.0    0.0   1 1.000   0 0.000   0 0.000   0 0.000   0 0.000   0 0.000   0 0.000   0 0.000  0 0 
     44 "1           " 115.00      47 "1           " 115.00  "1 "  1 "                                " :  1  0.027000  0.084000  0.039000    0.0    0.0    0.0    0.0 0.000    1.0 /
   1    1  0.000000  0.000000  1.000000   400101   391231   0 1  0    0.0    0.0    0.0    0.0   1 1.000   0 0.000   0 0.000   0 0.000   0 0.000   0 0.000   0 0.000   0 0.000  0 0 
     44 "1           " 115.00      54 "1           " 115.00  "1 "  1 "                                " :  1  0.028000  0.084000  0.037000    0.0    0.0    0.0    0.0 0.000    1.0 /
   1    1  0.000000  0.000000  1.000000   400101   391231   0 1  0    0.0    0.0    0.0    0.0   1 1.000   0 0.000   0 0.000   0 0.000   0 0.000   0 0.000   0 0.000   0 0.000  0 0 
     45 "1           " 230.00      60 "1           " 230.00  "1 "  1 "                                " :  1  0.007000  0.041000  0.312000    0.0    0.0    0.0    0.0 0.000    1.0 /
   1    1  0.000000  0.000000  1.000000   400101   391231   0 1  0    0.0    0.0    0.0    0.0   1 1.000   0 0.000   0 0.000   0 0.000   0 0.000   0 0.000   0 0.000   0 0.000  0 0 
     45 "1           " 230.00      74 "1           " 230.00  "1 "  1 "                                " :  1  0.009000  0.054000  0.411000    0.0    0.0    0.0    0.0 0.000    1.0 /
   1    1  0.000000  0.000000  1.000000   400101   391231   0 1  0    0.0    0.0    0.0    0.0   1 1.000   0 0.000   0 0.000   0 0.000   0 0.000   0 0.000   0 0.000   0 0.000  0 0 
     46 "1           " 345.00      81 "1           " 345.00  "1 "  1 "                                " :  1  0.005000  0.042000  0.690000    0.0    0.0    0.0    0.0 0.000    1.0 /
   1    1  0.000000  0.000000  1.000000   400101   391231   0 1  0    0.0    0.0    0.0    0.0   1 1.000   0 0.000   0 0.000   0 0.000   0 0.000   0 0.000   0 0.000   0 0.000  0 0 
     47 "1           " 115.00      73 "1           " 115.00  "1 "  1 "                                " :  1  0.052000  0.145000  0.073000    0.0    0.0    0.0    0.0 0.000    1.0 /
   1    1  0.000000  0.000000  1.000000   400101   391231   0 1  0    0.0    0.0    0.0    0.0   1 1.000   0 0.000   0 0.000   0 0.000   0 0.000   0 0.000   0 0.000   0 0.000  0 0 
     47 "1           " 115.00     113 "1           " 115.00  "1 "  1 "                                " :  1  0.043000  0.118000  0.013000    0.0    0.0    0.0    0.0 0.000    1.0 /
   1    1  0.000000  0.000000  1.000000   400101   391231   0 1  0    0.0    0.0    0.0    0.0   1 1.000   0 0.000   0 0.000   0 0.000   0 0.000   0 0.000   0 0.000   0 0.000  0 0 
     48 "1           " 115.00     107 "1           " 115.00  "1 "  1 "                                " :  1  0.025000  0.062000  0.007000    0.0    0.0    0.0    0.0 0.000    1.0 /
   1    1  0.000000  0.000000  1.000000   400101   391231   0 1  0    0.0    0.0    0.0    0.0   1 1.000   0 0.000   0 0.000   0 0.000   0 0.000   0 0.000   0 0.000   0 0.000  0 0 
     49 "1           " 115.00      51 "1           " 115.00  "1 "  1 "                                " :  1  0.031000  0.094000  0.043000    0.0    0.0    0.0    0.0 0.000    1.0 /
...